Version 4
SHEET 1 1972 2576
WIRE 288 -288 208 -288
WIRE 368 -288 288 -288
WIRE 640 -288 448 -288
WIRE 288 -240 288 -288
WIRE -1136 -160 -1200 -160
WIRE -976 -160 -1072 -160
WIRE 288 -144 288 -160
WIRE 496 -144 288 -144
WIRE 640 -128 640 -288
WIRE 640 -128 560 -128
WIRE 688 -128 640 -128
WIRE 912 -128 688 -128
WIRE 496 -112 448 -112
WIRE 288 -96 288 -144
WIRE 448 -96 448 -112
WIRE -1200 -32 -1200 -160
WIRE -1200 -32 -1248 -32
WIRE -1184 -32 -1200 -32
WIRE -976 -32 -976 -160
WIRE -656 -32 -976 -32
WIRE 128 -32 128 -288
WIRE 128 -32 -448 -32
WIRE -1184 0 -1184 -32
WIRE -1136 0 -1184 0
WIRE 912 0 912 -128
WIRE 1648 0 992 0
WIRE 1760 0 1648 0
WIRE -976 16 -976 -32
WIRE -976 16 -1072 16
WIRE 1648 16 1648 0
WIRE -1136 32 -1168 32
WIRE -1168 48 -1168 32
WIRE 288 96 288 64
WIRE 1152 192 1088 192
WIRE 1280 192 1216 192
WIRE 1376 192 1280 192
WIRE 1488 192 1440 192
WIRE 1280 240 1280 192
WIRE 128 288 128 -32
WIRE 144 288 128 288
WIRE 288 288 288 160
WIRE 288 288 224 288
WIRE 400 288 288 288
WIRE 912 288 912 0
WIRE 912 288 480 288
WIRE -144 352 -176 352
WIRE 16 368 -80 368
WIRE -1568 384 -2064 384
WIRE -1504 384 -1568 384
WIRE -1344 384 -1424 384
WIRE -1216 384 -1280 384
WIRE -1072 384 -1136 384
WIRE -1056 384 -1072 384
WIRE -912 384 -976 384
WIRE -784 384 -848 384
WIRE -656 384 -656 -32
WIRE -656 384 -704 384
WIRE -448 384 -448 -32
WIRE -448 384 -656 384
WIRE -288 384 -448 384
WIRE -176 384 -208 384
WIRE -144 384 -176 384
WIRE 16 432 16 368
WIRE 112 432 16 432
WIRE 272 432 192 432
WIRE 352 432 272 432
WIRE -656 448 -656 384
WIRE -1568 464 -1568 384
WIRE -176 512 -176 384
WIRE -144 512 -176 512
WIRE 16 512 16 432
WIRE 16 512 -64 512
WIRE 352 512 352 432
WIRE 384 512 352 512
WIRE 272 528 272 512
WIRE 272 528 128 528
WIRE 608 528 448 528
WIRE 1760 528 688 528
WIRE 1840 528 1760 528
WIRE -1072 544 -1072 384
WIRE 272 544 272 528
WIRE 384 544 352 544
WIRE 1760 544 1760 528
WIRE 128 576 128 528
WIRE 352 624 352 544
WIRE 352 624 272 624
WIRE -1248 640 -1248 -32
WIRE -1072 640 -1072 608
WIRE -1072 640 -1248 640
WIRE 352 656 352 624
WIRE 384 656 352 656
WIRE 608 656 608 528
WIRE 608 656 464 656
WIRE -2064 688 -2064 384
WIRE -1072 688 -1072 640
WIRE 1120 688 1024 688
WIRE 1248 688 1184 688
WIRE 1344 688 1248 688
WIRE 1520 688 1408 688
WIRE 128 736 128 720
WIRE 272 736 128 736
WIRE 1248 736 1248 688
WIRE 1520 736 1248 736
WIRE 128 752 128 736
WIRE 400 752 336 752
WIRE 496 752 400 752
WIRE 624 752 560 752
WIRE 736 752 624 752
WIRE 1248 752 1248 736
WIRE 1520 752 1520 736
WIRE 272 768 256 768
WIRE 400 768 400 752
WIRE 624 768 624 752
WIRE -1072 784 -1072 768
WIRE -1072 784 -1376 784
WIRE 736 784 736 752
WIRE 768 784 736 784
WIRE 1440 784 1312 784
WIRE 992 800 832 800
WIRE -1568 816 -1568 544
WIRE -1216 816 -1568 816
WIRE -1184 816 -1216 816
WIRE -1072 816 -1072 784
WIRE -1072 816 -1104 816
WIRE -1008 816 -1072 816
WIRE -896 816 -928 816
WIRE -656 816 -656 528
WIRE -656 816 -896 816
WIRE 768 816 736 816
WIRE 1312 832 1312 784
WIRE 1344 832 1312 832
WIRE -1376 848 -1376 784
WIRE 128 848 128 832
WIRE 128 848 96 848
WIRE 1440 848 1440 784
WIRE 1440 848 1408 848
WIRE 1520 848 1520 832
WIRE 1520 848 1440 848
WIRE 1248 864 1248 816
WIRE 1344 864 1248 864
WIRE 128 880 128 848
WIRE -1216 928 -1216 816
WIRE -896 928 -896 816
WIRE 1248 928 1248 864
WIRE 256 960 256 768
WIRE 256 960 128 960
WIRE 400 960 400 848
WIRE 400 960 256 960
WIRE 736 960 736 816
WIRE 736 960 400 960
WIRE 96 1008 96 848
WIRE 992 1008 992 800
WIRE 992 1008 96 1008
WIRE -1216 1040 -1216 992
WIRE -1056 1040 -1216 1040
WIRE -960 1040 -1056 1040
WIRE -896 1040 -896 992
WIRE -896 1040 -960 1040
WIRE -1376 1120 -1376 912
WIRE -1056 1120 -1056 1040
WIRE -1056 1120 -1376 1120
WIRE -960 1184 -960 1120
FLAG -2016 80 0
FLAG -2016 0 V+
FLAG -1888 80 0
FLAG -1888 0 V-
FLAG -2064 768 0
FLAG -1168 48 0
FLAG -1104 -16 V+
FLAG -1104 48 V-
FLAG -960 1184 0
FLAG 1376 816 V+
FLAG 1376 880 V-
FLAG 1248 1008 0
FLAG 1760 624 0
FLAG 1840 528 NYAN
IOPIN 1840 528 Out
FLAG 416 560 V+
FLAG 416 496 V-
FLAG 304 784 V+
FLAG 800 832 V+
FLAG 304 720 V-
FLAG 800 768 V-
FLAG 624 848 0
FLAG -112 400 V+
FLAG -112 336 V-
FLAG -176 352 0
FLAG 448 -96 0
FLAG 528 -160 V+
FLAG 528 -96 V-
FLAG 688 -48 0
FLAG 1760 0 NEVE
IOPIN 1760 0 Out
FLAG 1648 96 0
FLAG 1280 320 0
SYMBOL voltage -2016 -16 R0
WINDOW 123 0 0 Left 0
WINDOW 39 0 0 Left 0
SYMATTR InstName V1
SYMATTR Value 12
SYMBOL voltage -1888 -16 R0
WINDOW 123 0 0 Left 0
WINDOW 39 0 0 Left 0
SYMATTR InstName V2
SYMATTR Value -12
SYMBOL voltage -2064 672 R0
WINDOW 3 24 152 Left 2
WINDOW 123 24 124 Left 2
WINDOW 39 0 0 Left 0
SYMATTR Value SINE(0 1 1000 0 0 0 1000)
SYMATTR Value2 AC 1
SYMATTR InstName V3
SYMBOL res -1120 368 R90
WINDOW 0 0 56 VBottom 2
WINDOW 3 32 56 VTop 2
SYMATTR InstName R11
SYMATTR Value 5k
SYMBOL res -960 368 R90
WINDOW 0 0 56 VBottom 2
WINDOW 3 32 56 VTop 2
SYMATTR InstName R12
SYMATTR Value 5k
SYMBOL cap -1280 368 R90
WINDOW 0 0 32 VBottom 2
WINDOW 3 32 32 VTop 2
SYMATTR InstName C3
SYMATTR Value 22n
SYMBOL cap -848 368 R90
WINDOW 0 0 32 VBottom 2
WINDOW 3 32 32 VTop 2
SYMATTR InstName C5
SYMATTR Value 22n
SYMBOL cap -1056 608 R180
WINDOW 0 24 56 Left 2
WINDOW 3 24 8 Left 2
SYMATTR InstName C6
SYMATTR Value 15nf
SYMBOL res -1584 448 R0
SYMATTR InstName R10
SYMATTR Value 6800
SYMATTR SpiceLine tol=1 pwr=0.25
SYMBOL res -672 432 R0
SYMATTR InstName R13
SYMATTR Value 6800
SYMBOL res -1408 368 R90
WINDOW 0 0 56 VBottom 2
WINDOW 3 32 56 VTop 2
SYMATTR InstName R14
SYMATTR Value 620
SYMBOL res -688 368 R90
WINDOW 0 0 56 VBottom 2
WINDOW 3 32 56 VTop 2
SYMATTR InstName R15
SYMATTR Value 620
SYMBOL res -1088 672 R0
SYMATTR InstName R16
SYMATTR Value 12k
SYMBOL res -944 1136 R180
WINDOW 0 36 76 Left 2
WINDOW 3 36 40 Left 2
SYMATTR InstName R18
SYMATTR Value 12k
SYMBOL cap -1392 848 R0
SYMATTR InstName C4
SYMATTR Value 10n
SYMBOL res -1088 800 R90
WINDOW 0 0 56 VBottom 2
WINDOW 3 32 56 VTop 2
SYMATTR InstName R20
SYMATTR Value 25k
SYMBOL res -912 800 R90
WINDOW 0 0 56 VBottom 2
WINDOW 3 32 56 VTop 2
SYMATTR InstName R21
SYMATTR Value 25k
SYMBOL cap -1232 928 R0
SYMATTR InstName C9
SYMATTR Value 15n
SYMBOL cap -912 928 R0
SYMATTR InstName C10
SYMATTR Value 15n
SYMBOL Opamps\\ADTL082 1376 784 R0
SYMATTR InstName U4
SYMBOL cap 1232 752 R0
SYMATTR InstName C11
SYMATTR Value 10n
SYMATTR SpiceLine V=63
SYMBOL res 1504 736 R0
SYMATTR InstName R22
SYMATTR Value 470
SYMATTR SpiceLine tol=1 pwr=0.25
SYMBOL res 1232 912 R0
SYMATTR InstName R23
SYMATTR Value 638k
SYMATTR SpiceLine tol=1 pwr=0.25
SYMBOL res 1776 640 R180
WINDOW 0 36 76 Left 2
WINDOW 3 36 40 Left 2
SYMATTR InstName R25
SYMATTR Value 5100
SYMBOL cap 1184 672 R90
WINDOW 0 0 32 VBottom 2
WINDOW 3 32 32 VTop 2
SYMATTR InstName C12
SYMATTR Value 0.22µ
SYMBOL cap 1408 672 R90
WINDOW 0 0 32 VBottom 2
WINDOW 3 32 32 VTop 2
SYMATTR InstName C13
SYMATTR Value 0.22µ
SYMBOL res 704 512 R90
WINDOW 0 0 56 VBottom 2
WINDOW 3 32 56 VTop 2
SYMATTR InstName R35
SYMATTR Value 1200
SYMBOL res 288 528 R180
WINDOW 0 36 76 Left 2
WINDOW 3 36 40 Left 2
SYMATTR InstName R1
SYMATTR Value 5k
SYMATTR SpiceLine tol=1 pwr=0.25
SYMBOL res 288 640 R180
WINDOW 0 36 76 Left 2
WINDOW 3 36 40 Left 2
SYMATTR InstName R2
SYMATTR Value 5k
SYMATTR SpiceLine tol=1 pwr=0.25
SYMBOL res 480 640 R90
WINDOW 0 0 56 VBottom 2
WINDOW 3 32 56 VTop 2
SYMATTR InstName R3
SYMATTR Value 23k
SYMBOL res 208 416 R90
WINDOW 0 0 56 VBottom 2
WINDOW 3 32 56 VTop 2
SYMATTR InstName R4
SYMATTR Value 23k
SYMBOL res 112 624 R0
SYMATTR InstName R5
SYMATTR Value 2700
SYMATTR SpiceLine tol=1 pwr=0.25
SYMBOL cap 112 576 R0
SYMATTR InstName C1
SYMATTR Value 4.7n
SYMATTR SpiceLine V=63
SYMBOL OpAmps\\OP27 -112 432 M180
SYMATTR InstName U1
SYMBOL OpAmps\\OP27 416 592 M180
SYMATTR InstName U2
SYMBOL res 112 736 R0
SYMATTR InstName R7
SYMATTR Value 10k
SYMBOL res 112 864 R0
SYMATTR InstName R8
SYMATTR Value 10k
SYMBOL res 384 752 R0
SYMATTR InstName R17
SYMATTR Value 10k
SYMBOL cap 560 736 R90
WINDOW 0 0 32 VBottom 2
WINDOW 3 32 32 VTop 2
SYMATTR InstName C8
SYMATTR Value 10n
SYMBOL res 608 752 R0
SYMATTR InstName R19
SYMATTR Value 2k
SYMBOL res -192 368 R90
WINDOW 0 0 56 VBottom 2
WINDOW 3 32 56 VTop 2
SYMATTR InstName R24
SYMATTR Value 10k
SYMBOL res -48 496 R90
WINDOW 0 0 56 VBottom 2
WINDOW 3 32 56 VTop 2
SYMATTR InstName R26
SYMATTR Value 10k
SYMBOL Opamps\\ADTL082 304 816 M180
SYMATTR InstName U5
SYMBOL Opamps\\ADTL082 800 864 M180
SYMATTR InstName U6
SYMBOL OpAmps\\OP27 -1104 -48 R0
SYMATTR InstName U3
SYMBOL res 224 -304 R90
WINDOW 0 0 56 VBottom 2
WINDOW 3 32 56 VTop 2
SYMATTR InstName R6
SYMATTR Value 6800
SYMATTR SpiceLine tol=1 pwr=0.25
SYMBOL res 272 -112 R0
SYMATTR InstName R9
SYMATTR Value 2700
SYMATTR SpiceLine tol=1 pwr=0.25
SYMBOL res 272 -256 R0
SYMATTR InstName R27
SYMATTR Value 8200
SYMATTR SpiceLine tol=1 pwr=0.25
SYMBOL cap 272 96 R0
SYMATTR InstName C2
SYMATTR Value 4.7n
SYMATTR SpiceLine V=63
SYMBOL res 464 -304 R90
WINDOW 0 0 56 VBottom 2
WINDOW 3 32 56 VTop 2
SYMATTR InstName R28
SYMATTR Value 6800
SYMATTR SpiceLine tol=1 pwr=0.25
SYMBOL res 240 272 R90
WINDOW 0 0 56 VBottom 2
WINDOW 3 32 56 VTop 2
SYMATTR InstName R29
SYMATTR Value 5k
SYMATTR SpiceLine tol=1 pwr=0.25
SYMBOL res 496 272 R90
WINDOW 0 0 56 VBottom 2
WINDOW 3 32 56 VTop 2
SYMATTR InstName R30
SYMATTR Value 5k
SYMATTR SpiceLine tol=1 pwr=0.25
SYMBOL res 672 -144 R0
SYMATTR InstName R31
SYMATTR Value 10k
SYMBOL res 1008 -16 R90
WINDOW 0 0 56 VBottom 2
WINDOW 3 32 56 VTop 2
SYMATTR InstName R32
SYMATTR Value 1200
SYMBOL ind 272 -32 R0
SYMATTR InstName L1
SYMATTR Value .2
SYMATTR SpiceLine Rser=32
SYMBOL OpAmps\\OP27 528 -192 R0
SYMATTR InstName U7
SYMBOL res 1664 112 R180
WINDOW 0 36 76 Left 2
WINDOW 3 36 40 Left 2
SYMATTR InstName R33
SYMATTR Value 5100
SYMBOL cap 1216 176 R90
WINDOW 0 0 32 VBottom 2
WINDOW 3 32 32 VTop 2
SYMATTR InstName C15
SYMATTR Value 0.22µ
SYMBOL cap 1440 176 R90
WINDOW 0 0 32 VBottom 2
WINDOW 3 32 32 VTop 2
SYMATTR InstName C16
SYMATTR Value 0.22µ
SYMBOL ind 1264 224 R0
SYMATTR InstName L2
SYMATTR Value 3
SYMATTR SpiceLine Rser=490
SYMBOL cap -1072 -176 R90
WINDOW 0 0 32 VBottom 2
WINDOW 3 32 32 VTop 2
SYMATTR InstName C7
SYMATTR Value 470p
TEXT -400 168 Left 2 !.ac dec 100 2 96k
TEXT -408 88 Left 2 !;tran 0 250ms 230ms 0.0000762939453125
TEXT -400 128 Left 2 !;noise V(NYAN)V3 oct 24 2 24k
TEXT -760 904 Left 3 ;35Hz - 200n\n 60 Hz - 100n\n110Hz -  47n\n220Hz -  15n
TEXT 400 0 Left 3 ;360Hz  - 2H / 85R / 100n\n700 Hz - 1,1H / 59R / 47n\n1,6kHz - 450mH / 35R / 22n\n3,2kHz - 200mH / 32R / 12.2n\n4,8kHz - 200mH / 32R / 4.7n\n7,2kHz - 200mH / 32R / 2420p
TEXT 1104 376 Left 3 ;50 Hz -  10H / 1k / 1u\n 80 Hz -    7H /800R / 470n\n150Hz -   3H / 490R / 220n\n300Hz - 1.3H /310R /122n
